["Toggle", "Home News", "School of Computing Science Simon Fraser University", "Google", "Github Linkedin Group", "Active Research", "LLVM", "GPUs", "Recent Publications and Talks", "the 49th Intl", "the ACM Multimedia Systems Conference}", "High Performance Computer Architecture}", "Intl", "High Performance Computer Architecture}", "Intl", "@inproceedings{kumar-iiswc-2016", "PARSEC", "Intl", "Symp", "the 49th Intl", "Hardware Accelerators for Software Data Structures", "Intl", "@inproceedings{kumar-isca-2015", "the 42nd Intl", "Computer Architecture", "@inproceedings{danlin-pact-2014", "Intl", "Parallel Architectures and Compilation Techniques", "@inproceedings{ipsingh-toppicks-2014", "@inproceedings{kumar-micro-2013", "WONDP", "IEEE Computer Vol 46", "IEEE Computer}", "Computer Architecture", "Liveness", "the Design Automation and Test", "Intl", "High Performance Computer Architecture}", "Intl", "Intl", "High Performance Computer Architecture}", "Intl", "Parallel Architectures and Compilation Techniques", "Intl", "Parallel Architectures and Compilation Techniques", "@inproceedings{shriraman-isca-2010", "Sentry", "Intl.", "Computer Architecture", "the Design of Flexible Transactional Memory Support", "Intl", "Journal of Parallel Programming}", "ICS Award Paper", "@inproceedings{shriraman-usenixlogin-2009", "Transactional Memory}", "The USENIX Magazine}", "ACM Intl", "@inproceedings{shriraman-isca-2008", "the 35th Intl.", "Computer Architecture", "@inproceedings{shriraman-isca-2008", "the 35th Intl.", "Computer Architecture", "@inproceedings{shriraman-isca-2007", "Computer Architecture", "the Symposium on Parallelism in Algorithms and Architectures}", "Power Model for Supercomputers", "Intl", "Architecture of Computing Systems", "the 49th Intl", "the ACM Multimedia Systems Conference", "the ACM Multimedia Systems Conference }", "Intl", "High Performance Computer Architecture", "High Performance Computer Architecture }", "GPGPU-Sim + Wisconsin Ruby Simulation", "ASPLOS 2017", "Local Arrangements Chair", "Google Platform Research Group", "Load-Store Queues"]